Version 4
SHEET 1 1196 680
WIRE 128 -64 -32 -64
WIRE 240 -64 128 -64
WIRE 128 -16 128 -64
WIRE 240 -16 240 -64
WIRE -32 48 -32 -64
WIRE 128 96 128 64
WIRE 240 96 240 64
WIRE 128 112 128 96
WIRE 240 112 240 96
WIRE -32 224 -32 128
WIRE 80 224 -32 224
WIRE 128 224 128 176
WIRE 128 224 80 224
WIRE 240 224 240 176
WIRE 240 224 128 224
WIRE 80 240 80 224
FLAG 80 240 0
FLAG 128 96 V_White
FLAG 240 96 V_Yellow
SYMBOL LED 112 112 R0
SYMATTR InstName D1
SYMATTR Value Osram
SYMBOL voltage -32 32 R0
WINDOW 123 0 0 Left 0
WINDOW 39 0 0 Left 0
SYMATTR InstName V1
SYMATTR Value 0
SYMBOL res 112 -32 R0
SYMATTR InstName R1
SYMATTR Value 40
SYMBOL LED 224 112 R0
SYMATTR InstName D2
SYMATTR Value YellowLed
SYMBOL res 224 -32 R0
SYMATTR InstName R2
SYMATTR Value 160
TEXT -48 264 Left 2 !.dc V1 2.8 1.8 .05
TEXT -56 312 Left 2 !.model YellowLed D(IS = 6.12e-20a N = 1.95 RS = 8.12)\n.model Osram D (IS=4.5e-27a RS=2.2 N=1.812)
