Version 4
SHEET 1 880 680
SYMBOL Opamps\\opamp2 176 96 R0
SYMATTR InstName U1
