Version 4
SHEET 1 880 680
WIRE 176 32 -272 32
WIRE 352 32 176 32
WIRE 272 80 -112 80
WIRE 176 112 176 32
WIRE -272 144 -272 32
WIRE -112 144 -112 80
WIRE 352 176 352 32
WIRE 272 192 272 80
WIRE 320 192 272 192
WIRE 496 208 384 208
WIRE 176 224 176 192
WIRE 272 224 176 224
WIRE 320 224 272 224
WIRE 496 224 496 208
WIRE 352 240 352 224
WIRE -272 256 -272 224
WIRE -192 256 -272 256
WIRE -112 256 -112 224
WIRE -112 256 -192 256
WIRE 352 272 352 240
WIRE -192 288 -192 256
WIRE 272 320 272 224
WIRE 496 320 496 304
WIRE 496 320 272 320
WIRE 176 416 176 304
FLAG -192 288 0
FLAG 352 272 0
FLAG 176 416 0
SYMBOL res 160 96 R0
SYMATTR InstName R1
SYMBOL res 160 208 R0
SYMATTR InstName R2
SYMBOL res 480 208 R0
SYMATTR InstName R3
SYMBOL Opamps\\UniversalOpAmp 352 208 R0
SYMATTR InstName U1
SYMATTR Value2 ""
SYMATTR SpiceLine ""
SYMATTR Value LM358
SYMBOL voltage -272 128 R0
WINDOW 123 0 0 Left 0
WINDOW 39 0 0 Left 0
SYMATTR InstName V1
SYMATTR Value 3
SYMBOL voltage -112 128 R0
WINDOW 123 0 0 Left 0
WINDOW 39 0 0 Left 0
SYMATTR InstName V2
SYMATTR Value SINE(1.5 1.5 1 0 0 0 10)
TEXT 296 432 Left 2 !.include lm358.txt
TEXT -306 452 Left 2 !.tran 0 4 0 0.1
